[General]
network = HeavyTrafficLimits
sim-time-limit = 100000s
repeat = 20
replication-label = rep${repetition}
result-dir = results/lambda_1.0-switchProb_0.4-serviceTime_uniform(1s,6s)
warmup-period = 30000s
**.source.lambda = 1.0
**.router.switchProbability = 0.4
**.server1.serviceTime = uniform(1s,6s)
**.server2.serviceTime = uniform(1s,6s)
**.server3.serviceTime = uniform(1s,6s)
**.server1.crashTime = 500
**.server2.crashTime = 750
**.server3.crashTime = 1000
**.server1.queueLength.record = true
**.server1.serviceTime.record = true
**.server2.serviceTime.record = true
**.server3.serviceTime.record = true
